
* expanding   symbol:  /home/eserlis/one_class_tt_official.sym # of pins=10
** sym_path: /home/eserlis/one_class_tt_official.sym
** sch_path: /home/eserlis/one_class_tt_official.sch
.subckt one_class_tt_official Vdd Vss Vr Vin4 Vin3 Vin2 Vin1 En Iout0 Iout1
*.iopin Vdd
*.iopin Vr
*.iopin Vss
*.iopin Vin3
*.iopin Vin2
*.iopin Vin1
*.iopin Vin4
*.iopin En
*.iopin Iout0
*.iopin Iout1
x5 Vdd Iout00 Vr Vdac0 Ibias Vss bump_final_tt
x2 Vdd Iout01 Vr Vdac0 Iout00 Vss bump_final_tt
x6 Vdd Iout10 Vref4 Vdac1 Ibias Vss bump_final_tt
x7 Vdd Iout11 Vref4 Vdac1 Iout10 Vss bump_final_tt
x11 Vdd En Ibias Vss ref_gen_tt
x3 Vref2 Vdd Vref1 Vss Vref3 Vref4 vol_ref_gen_tt
x1 Vdd Vss Vin1dac Vin2dac Vin3dac Vin4dac Vdac0 Vdac1 dac_tt
x4 Iout11 Iclass1 Vss ccm_nmos_tt
x8 Iout01 Iclass0 Vss ccm_nmos_tt
x12 Vdd Vss Iout0 Iout1 Iclass0 Iclass1 Ibias wta_pmos_tt
x9 Vss Vdd Vin3dac Vin3 inv_layout_tt
x10 Vss Vdd Vin4dac Vin4 inv_layout_tt
x13 Vss Vdd Vin1dac Vin1 inv_layout_tt
x14 Vss Vdd Vin2dac Vin2 inv_layout_tt
R964 Vdd.n409 Vdd.n406 6783.53
R965 Vdd.n412 Vdd.n405 6783.53
R966 Vdd.n60 Vdd.n59 2975.29
R967 Vdd.n62 Vdd.n53 2975.29
R968 Vdd.n31 Vdd.n30 2975.29
R969 Vdd.n83 Vdd.n29 2975.29
R970 Vdd.n17 Vdd.n16 2505.88
R971 Vdd.n19 Vdd.n13 2505.88
R972 Vdd.n373 Vdd.n371 2227.06
R973 Vdd.n376 Vdd.n375 2227.06
R974 Vdd.n358 Vdd.n356 2227.06
R975 Vdd.n365 Vdd.n354 2227.06
R976 Vdd.n321 Vdd.n310 2227.06
R977 Vdd.n314 Vdd.n312 2227.06
R978 Vdd.n332 Vdd.n331 2227.06
R979 Vdd.n329 Vdd.n327 2227.06
R980 Vdd.n225 Vdd.n219 2227.06
R981 Vdd.n222 Vdd.n220 2227.06
R982 Vdd.n214 Vdd.n208 2227.06
R983 Vdd.n211 Vdd.n209 2227.06
R984 Vdd.n202 Vdd.n199 2227.06
R985 Vdd.n253 Vdd.n197 2227.06
R986 Vdd.n235 Vdd.n234 2227.06
R987 Vdd.n237 Vdd.n231 2227.06
R988 Vdd.n275 Vdd.n264 2227.06
R989 Vdd.n268 Vdd.n266 2227.06
R990 Vdd.n286 Vdd.n285 2227.06
R991 Vdd.n283 Vdd.n281 2227.06
R992 Vdd.n136 Vdd.n135 1912.94
R993 Vdd.n138 Vdd.n132 1912.94
R994 Vdd.n150 Vdd.n149 1912.94
R995 Vdd.n152 Vdd.n146 1912.94
R996 Vdd.n176 Vdd.n175 1912.94
R997 Vdd.n178 Vdd.n172 1912.94
R998 Vdd.n188 Vdd.n187 1912.94
R999 Vdd.n190 Vdd.n184 1912.94
R1000 Vdd.n163 Vdd.n162 1912.94
R1001 Vdd.n165 Vdd.n159 1912.94
R1002 Vdd.n123 Vdd.n122 1912.94
R1003 Vdd.n125 Vdd.n119 1912.94
R1004 Vdd.n94 Vdd.n93 1912.94
R1005 Vdd.n96 Vdd.n90 1912.94
R1006 Vdd.n108 Vdd.n107 1912.94
R1007 Vdd.n110 Vdd.n104 1912.94
R1008 Vdd.n687 Vdd.n671 1807.06
R1009 Vdd.n680 Vdd.n676 1807.06
R1010 Vdd.n611 Vdd.n595 1807.06
R1011 Vdd.n604 Vdd.n600 1807.06
R1012 Vdd.n535 Vdd.n519 1807.06
R1013 Vdd.n528 Vdd.n524 1807.06
R1014 Vdd.n460 Vdd.n444 1807.06
R1015 Vdd.n453 Vdd.n449 1807.06
R1016 Vdd.n739 Vdd.n738 1771.76
R1017 Vdd.n751 Vdd.n750 1771.76
R1018 Vdd.n736 Vdd.n731 1771.76
R1019 Vdd.n748 Vdd.n743 1771.76
R1020 Vdd.n657 Vdd.n653 1771.76
R1021 Vdd.n664 Vdd.n648 1771.76
R1022 Vdd.n711 Vdd.n695 1771.76
R1023 Vdd.n704 Vdd.n700 1771.76
R1024 Vdd.n635 Vdd.n619 1771.76
R1025 Vdd.n628 Vdd.n624 1771.76
R1026 Vdd.n581 Vdd.n577 1771.76
R1027 Vdd.n588 Vdd.n572 1771.76
R1028 Vdd.n505 Vdd.n501 1771.76
R1029 Vdd.n512 Vdd.n496 1771.76
R1030 Vdd.n559 Vdd.n543 1771.76
R1031 Vdd.n552 Vdd.n548 1771.76
R1032 Vdd.n430 Vdd.n426 1771.76
R1033 Vdd.n437 Vdd.n421 1771.76
R1034 Vdd.n484 Vdd.n468 1771.76
R1035 Vdd.n477 Vdd.n473 1771.76
R1036 Vdd.n59 Vdd.n55 1736.47
R1037 Vdd.n55 Vdd.n53 1736.47
R1038 Vdd.n68 Vdd.n44 1736.47
R1039 Vdd.n68 Vdd.n67 1736.47
R1040 Vdd.n67 Vdd.n66 1736.47
R1041 Vdd.n66 Vdd.n37 1736.47
R1042 Vdd.n30 Vdd.n28 1736.47
R1043 Vdd.n83 Vdd.n28 1736.47
R1044 Vdd.n43 Vdd.n42 1736.47
R1045 Vdd.n42 Vdd.n33 1736.47
R1046 Vdd.n76 Vdd.n33 1736.47
R1047 Vdd.n76 Vdd.n75 1736.47
R1048 Vdd.n410 Vdd.n405 1720.44
R1049 Vdd.n411 Vdd.n406 1720.44
R1050 Vdd.n371 Vdd.n350 1408.24
R1051 Vdd.n369 Vdd.n351 1408.24
R1052 Vdd.n370 Vdd.n369 1408.24
R1053 Vdd.n360 Vdd.n359 1408.24
R1054 Vdd.n360 Vdd.n351 1408.24
R1055 Vdd.n366 Vdd.n365 1408.24
R1056 Vdd.n376 Vdd.n366 1408.24
R1057 Vdd.n356 Vdd.n350 1408.24
R1058 Vdd.n322 Vdd.n321 1408.24
R1059 Vdd.n312 Vdd.n306 1408.24
R1060 Vdd.n316 Vdd.n315 1408.24
R1061 Vdd.n316 Vdd.n307 1408.24
R1062 Vdd.n325 Vdd.n307 1408.24
R1063 Vdd.n326 Vdd.n325 1408.24
R1064 Vdd.n332 Vdd.n322 1408.24
R1065 Vdd.n327 Vdd.n306 1408.24
R1066 Vdd.n249 Vdd.n200 1408.24
R1067 Vdd.n250 Vdd.n249 1408.24
R1068 Vdd.n276 Vdd.n275 1408.24
R1069 Vdd.n266 Vdd.n260 1408.24
R1070 Vdd.n270 Vdd.n269 1408.24
R1071 Vdd.n270 Vdd.n261 1408.24
R1072 Vdd.n279 Vdd.n261 1408.24
R1073 Vdd.n280 Vdd.n279 1408.24
R1074 Vdd.n286 Vdd.n276 1408.24
R1075 Vdd.n281 Vdd.n260 1408.24
R1076 Vdd.n5 Vdd.n3 1383.53
R1077 Vdd.n8 Vdd.n2 1383.53
R1078 Vdd.n72 Vdd.n43 1238.82
R1079 Vdd.n72 Vdd.n44 1238.82
R1080 Vdd.n60 Vdd.n44 1238.82
R1081 Vdd.n62 Vdd.n37 1238.82
R1082 Vdd.n40 Vdd.n33 1238.82
R1083 Vdd.n67 Vdd.n40 1238.82
R1084 Vdd.n67 Vdd.n50 1238.82
R1085 Vdd.n55 Vdd.n50 1238.82
R1086 Vdd.n80 Vdd.n28 1238.82
R1087 Vdd.n80 Vdd.n33 1238.82
R1088 Vdd.n75 Vdd.n29 1238.82
R1089 Vdd.n75 Vdd.n74 1238.82
R1090 Vdd.n74 Vdd.n37 1238.82
R1091 Vdd.n43 Vdd.n31 1238.82
R1092 Vdd.n739 Vdd.n728 1069.41
R1093 Vdd.n751 Vdd.n728 1069.41
R1094 Vdd.n731 Vdd.n724 1069.41
R1095 Vdd.n743 Vdd.n724 1069.41
R1096 Vdd.n732 Vdd.n730 1069.41
R1097 Vdd.n732 Vdd.n725 1069.41
R1098 Vdd.n744 Vdd.n725 1069.41
R1099 Vdd.n744 Vdd.n742 1069.41
R1100 Vdd.n654 Vdd.n647 1069.41
R1101 Vdd.n664 Vdd.n647 1069.41
R1102 Vdd.n657 Vdd.n651 1069.41
R1103 Vdd.n661 Vdd.n651 1069.41
R1104 Vdd.n680 Vdd.n674 1069.41
R1105 Vdd.n684 Vdd.n674 1069.41
R1106 Vdd.n677 Vdd.n670 1069.41
R1107 Vdd.n687 Vdd.n670 1069.41
R1108 Vdd.n704 Vdd.n698 1069.41
R1109 Vdd.n708 Vdd.n698 1069.41
R1110 Vdd.n701 Vdd.n694 1069.41
R1111 Vdd.n711 Vdd.n694 1069.41
R1112 Vdd.n628 Vdd.n622 1069.41
R1113 Vdd.n632 Vdd.n622 1069.41
R1114 Vdd.n625 Vdd.n618 1069.41
R1115 Vdd.n635 Vdd.n618 1069.41
R1116 Vdd.n578 Vdd.n571 1069.41
R1117 Vdd.n588 Vdd.n571 1069.41
R1118 Vdd.n581 Vdd.n575 1069.41
R1119 Vdd.n585 Vdd.n575 1069.41
R1120 Vdd.n604 Vdd.n598 1069.41
R1121 Vdd.n608 Vdd.n598 1069.41
R1122 Vdd.n601 Vdd.n594 1069.41
R1123 Vdd.n611 Vdd.n594 1069.41
R1124 Vdd.n502 Vdd.n495 1069.41
R1125 Vdd.n512 Vdd.n495 1069.41
R1126 Vdd.n505 Vdd.n499 1069.41
R1127 Vdd.n509 Vdd.n499 1069.41
R1128 Vdd.n528 Vdd.n522 1069.41
R1129 Vdd.n532 Vdd.n522 1069.41
R1130 Vdd.n525 Vdd.n518 1069.41
R1131 Vdd.n535 Vdd.n518 1069.41
R1132 Vdd.n552 Vdd.n546 1069.41
R1133 Vdd.n556 Vdd.n546 1069.41
R1134 Vdd.n549 Vdd.n542 1069.41
R1135 Vdd.n559 Vdd.n542 1069.41
R1136 Vdd.n427 Vdd.n420 1069.41
R1137 Vdd.n437 Vdd.n420 1069.41
R1138 Vdd.n430 Vdd.n424 1069.41
R1139 Vdd.n434 Vdd.n424 1069.41
R1140 Vdd.n453 Vdd.n447 1069.41
R1141 Vdd.n457 Vdd.n447 1069.41
R1142 Vdd.n450 Vdd.n443 1069.41
R1143 Vdd.n460 Vdd.n443 1069.41
R1144 Vdd.n477 Vdd.n471 1069.41
R1145 Vdd.n481 Vdd.n471 1069.41
R1146 Vdd.n474 Vdd.n467 1069.41
R1147 Vdd.n484 Vdd.n467 1069.41
R1148 Vdd.n373 Vdd.n370 818.823
R1149 Vdd.n375 Vdd.n370 818.823
R1150 Vdd.n359 Vdd.n358 818.823
R1151 Vdd.n359 Vdd.n354 818.823
R1152 Vdd.n382 Vdd.n350 818.823
R1153 Vdd.n382 Vdd.n351 818.823
R1154 Vdd.n380 Vdd.n351 818.823
R1155 Vdd.n380 Vdd.n366 818.823
R1156 Vdd.n315 Vdd.n314 818.823
R1157 Vdd.n315 Vdd.n310 818.823
R1158 Vdd.n338 Vdd.n306 818.823
R1159 Vdd.n338 Vdd.n307 818.823
R1160 Vdd.n336 Vdd.n307 818.823
R1161 Vdd.n336 Vdd.n322 818.823
R1162 Vdd.n329 Vdd.n326 818.823
R1163 Vdd.n331 Vdd.n326 818.823
R1164 Vdd.n245 Vdd.n200 818.823
R1165 Vdd.n200 Vdd.n197 818.823
R1166 Vdd.n250 Vdd.n199 818.823
R1167 Vdd.n251 Vdd.n250 818.823
R1168 Vdd.n269 Vdd.n268 818.823
R1169 Vdd.n269 Vdd.n264 818.823
R1170 Vdd.n292 Vdd.n260 818.823
R1171 Vdd.n292 Vdd.n261 818.823
R1172 Vdd.n290 Vdd.n261 818.823
R1173 Vdd.n290 Vdd.n276 818.823
R1174 Vdd.n283 Vdd.n280 818.823
R1175 Vdd.n285 Vdd.n280 818.823
R1176 Vdd.n673 Vdd.n670 737.648
R1177 Vdd.n674 Vdd.n673 737.648
R1178 Vdd.n597 Vdd.n594 737.648
R1179 Vdd.n598 Vdd.n597 737.648
R1180 Vdd.n521 Vdd.n518 737.648
R1181 Vdd.n522 Vdd.n521 737.648
R1182 Vdd.n446 Vdd.n443 737.648
R1183 Vdd.n447 Vdd.n446 737.648
R1184 Vdd.n408 Vdd.n407 723.577
R1185 Vdd.n408 Vdd.n404 723.577
R1186 Vdd.n413 Vdd.n404 723.577
R1187 Vdd.n407 Vdd.n403 717.177
R1188 Vdd.n755 Vdd.n725 702.354
R1189 Vdd.n755 Vdd.n728 702.354
R1190 Vdd.n738 Vdd.n730 702.354
R1191 Vdd.n757 Vdd.n724 702.354
R1192 Vdd.n757 Vdd.n725 702.354
R1193 Vdd.n736 Vdd.n730 702.354
R1194 Vdd.n748 Vdd.n742 702.354
R1195 Vdd.n750 Vdd.n742 702.354
R1196 Vdd.n650 Vdd.n647 702.354
R1197 Vdd.n651 Vdd.n650 702.354
R1198 Vdd.n697 Vdd.n694 702.354
R1199 Vdd.n698 Vdd.n697 702.354
R1200 Vdd.n621 Vdd.n618 702.354
R1201 Vdd.n622 Vdd.n621 702.354
R1202 Vdd.n574 Vdd.n571 702.354
R1203 Vdd.n575 Vdd.n574 702.354
R1204 Vdd.n498 Vdd.n495 702.354
R1205 Vdd.n499 Vdd.n498 702.354
R1206 Vdd.n545 Vdd.n542 702.354
R1207 Vdd.n546 Vdd.n545 702.354
R1208 Vdd.n423 Vdd.n420 702.354
R1209 Vdd.n424 Vdd.n423 702.354
R1210 Vdd.n470 Vdd.n467 702.354
R1211 Vdd.n471 Vdd.n470 702.354
R1212 Vdd.n19 Vdd.n18 611.4
R1213 Vdd.n16 Vdd.n14 611.4
R1214 Vdd.n223 Vdd.n219 546.558
R1215 Vdd.n224 Vdd.n220 546.558
R1216 Vdd.n212 Vdd.n208 546.558
R1217 Vdd.n213 Vdd.n209 546.558
R1218 Vdd.n237 Vdd.n236 546.558
R1219 Vdd.n234 Vdd.n232 546.558
R1220 Vdd.n135 Vdd.n133 543.497
R1221 Vdd.n138 Vdd.n137 543.497
R1222 Vdd.n149 Vdd.n147 543.497
R1223 Vdd.n152 Vdd.n151 543.497
R1224 Vdd.n175 Vdd.n173 543.497
R1225 Vdd.n178 Vdd.n177 543.497
R1226 Vdd.n187 Vdd.n185 543.497
R1227 Vdd.n190 Vdd.n189 543.497
R1228 Vdd.n162 Vdd.n160 543.497
R1229 Vdd.n165 Vdd.n164 543.497
R1230 Vdd.n122 Vdd.n120 543.497
R1231 Vdd.n125 Vdd.n124 543.497
R1232 Vdd.n93 Vdd.n91 543.497
R1233 Vdd.n96 Vdd.n95 543.497
R1234 Vdd.n107 Vdd.n105 543.497
R1235 Vdd.n110 Vdd.n109 543.497
R1236 Vdd.n656 Vdd.n649 535.038
R1237 Vdd.n663 Vdd.n649 535.038
R1238 Vdd.n703 Vdd.n696 535.038
R1239 Vdd.n710 Vdd.n696 535.038
R1240 Vdd.n627 Vdd.n620 535.038
R1241 Vdd.n634 Vdd.n620 535.038
R1242 Vdd.n580 Vdd.n573 535.038
R1243 Vdd.n587 Vdd.n573 535.038
R1244 Vdd.n504 Vdd.n497 535.038
R1245 Vdd.n511 Vdd.n497 535.038
R1246 Vdd.n551 Vdd.n544 535.038
R1247 Vdd.n558 Vdd.n544 535.038
R1248 Vdd.n429 Vdd.n422 535.038
R1249 Vdd.n436 Vdd.n422 535.038
R1250 Vdd.n476 Vdd.n469 535.038
R1251 Vdd.n483 Vdd.n469 535.038
R1252 Vdd.n679 Vdd.n672 515.861
R1253 Vdd.n686 Vdd.n672 515.861
R1254 Vdd.n603 Vdd.n596 515.861
R1255 Vdd.n610 Vdd.n596 515.861
R1256 Vdd.n527 Vdd.n520 515.861
R1257 Vdd.n534 Vdd.n520 515.861
R1258 Vdd.n452 Vdd.n445 515.861
R1259 Vdd.n459 Vdd.n445 515.861
R1260 Vdd.n655 Vdd.n653 432.829
R1261 Vdd.n662 Vdd.n648 432.829
R1262 Vdd.n702 Vdd.n700 432.829
R1263 Vdd.n709 Vdd.n695 432.829
R1264 Vdd.n626 Vdd.n624 432.829
R1265 Vdd.n633 Vdd.n619 432.829
R1266 Vdd.n579 Vdd.n577 432.829
R1267 Vdd.n586 Vdd.n572 432.829
R1268 Vdd.n503 Vdd.n501 432.829
R1269 Vdd.n510 Vdd.n496 432.829
R1270 Vdd.n550 Vdd.n548 432.829
R1271 Vdd.n557 Vdd.n543 432.829
R1272 Vdd.n428 Vdd.n426 432.829
R1273 Vdd.n435 Vdd.n421 432.829
R1274 Vdd.n475 Vdd.n473 432.829
R1275 Vdd.n482 Vdd.n468 432.829
R1276 Vdd.n678 Vdd.n676 424.014
R1277 Vdd.n685 Vdd.n671 424.014
R1278 Vdd.n602 Vdd.n600 424.014
R1279 Vdd.n609 Vdd.n595 424.014
R1280 Vdd.n526 Vdd.n524 424.014
R1281 Vdd.n533 Vdd.n519 424.014
R1282 Vdd.n451 Vdd.n449 424.014
R1283 Vdd.n458 Vdd.n444 424.014
R1284 Vdd.n357 Vdd.n352 382.205
R1285 Vdd.n381 Vdd.n352 382.205
R1286 Vdd.n381 Vdd.n353 382.205
R1287 Vdd.n374 Vdd.n353 382.205
R1288 Vdd.n313 Vdd.n308 382.205
R1289 Vdd.n337 Vdd.n308 382.205
R1290 Vdd.n337 Vdd.n309 382.205
R1291 Vdd.n330 Vdd.n309 382.205
R1292 Vdd.n267 Vdd.n262 382.205
R1293 Vdd.n291 Vdd.n262 382.205
R1294 Vdd.n291 Vdd.n263 382.205
R1295 Vdd.n284 Vdd.n263 382.205
R1296 Vdd.n6 Vdd.n2 347.05
R1297 Vdd.n7 Vdd.n3 347.05
R1298 Vdd.n394 Vdd.t0 337.618
R1299 Vdd.n398 Vdd.t4 337.615
R1300 Vdd.t2 Vdd.n396 337.586
R1301 Vdd.t3 Vdd.n395 337.231
R1302 Vdd.n396 Vdd.t3 337.231
R1303 Vdd.n397 Vdd.t2 337.231
R1304 Vdd.t1 Vdd.n392 337.231
R1305 Vdd.n393 Vdd.t1 337.231
R1306 Vdd.t4 Vdd.n397 337.231
R1307 Vdd.t5 Vdd.n394 337.231
R1308 Vdd.n395 Vdd.t5 337.231
R1309 Vdd.t0 Vdd.n393 337.231
R1310 Vdd.n84 Vdd.n27 317.365
R1311 Vdd.n58 Vdd.n48 317.365
R1312 Vdd.n63 Vdd.n52 317.365
R1313 Vdd.n46 Vdd.n45 316.714
R1314 Vdd.n737 Vdd.n726 296.753
R1315 Vdd.n756 Vdd.n726 296.753
R1316 Vdd.n756 Vdd.n727 296.753
R1317 Vdd.n749 Vdd.n727 296.753
R1318 Vdd.n20 Vdd.n12 267.295
R1319 Vdd.n15 Vdd.n12 267.295
R1320 Vdd.n15 Vdd.n11 267.295
R1321 Vdd.n372 Vdd.n348 237.554
R1322 Vdd.n377 Vdd.n367 237.554
R1323 Vdd.n364 Vdd.n363 237.554
R1324 Vdd.n333 Vdd.n323 237.554
R1325 Vdd.n320 Vdd.n319 237.554
R1326 Vdd.n328 Vdd.n304 237.554
R1327 Vdd.n221 Vdd.n217 237.554
R1328 Vdd.n221 Vdd.n218 237.554
R1329 Vdd.n226 Vdd.n218 237.554
R1330 Vdd.n210 Vdd.n206 237.554
R1331 Vdd.n210 Vdd.n207 237.554
R1332 Vdd.n215 Vdd.n207 237.554
R1333 Vdd.n254 Vdd.n196 237.554
R1334 Vdd.n205 Vdd.n204 237.554
R1335 Vdd.n238 Vdd.n230 237.554
R1336 Vdd.n233 Vdd.n230 237.554
R1337 Vdd.n233 Vdd.n229 237.554
R1338 Vdd.n287 Vdd.n277 237.554
R1339 Vdd.n274 Vdd.n273 237.554
R1340 Vdd.n282 Vdd.n258 237.554
R1341 Vdd.n265 Vdd.n257 237.554
R1342 Vdd.n311 Vdd.n303 237.554
R1343 Vdd.n355 Vdd.n347 237.554
R1344 Vdd.n248 Vdd.n247 234.969
R1345 Vdd.n248 Vdd.n198 234.969
R1346 Vdd.n239 Vdd.n229 226.403
R1347 Vdd.n253 Vdd.n252 224.225
R1348 Vdd.n246 Vdd.n202 224.225
R1349 Vdd.n134 Vdd.n131 204.048
R1350 Vdd.n139 Vdd.n131 204.048
R1351 Vdd.n148 Vdd.n145 204.048
R1352 Vdd.n153 Vdd.n145 204.048
R1353 Vdd.n174 Vdd.n171 204.048
R1354 Vdd.n179 Vdd.n171 204.048
R1355 Vdd.n186 Vdd.n183 204.048
R1356 Vdd.n191 Vdd.n183 204.048
R1357 Vdd.n161 Vdd.n158 204.048
R1358 Vdd.n166 Vdd.n158 204.048
R1359 Vdd.n121 Vdd.n118 204.048
R1360 Vdd.n126 Vdd.n118 204.048
R1361 Vdd.n92 Vdd.n89 204.048
R1362 Vdd.n97 Vdd.n89 204.048
R1363 Vdd.n106 Vdd.n103 204.048
R1364 Vdd.n111 Vdd.n103 204.048
R1365 Vdd.n134 Vdd.n130 203.719
R1366 Vdd.n148 Vdd.n144 203.719
R1367 Vdd.n174 Vdd.n170 203.719
R1368 Vdd.n186 Vdd.n182 203.719
R1369 Vdd.n161 Vdd.n157 203.719
R1370 Vdd.n121 Vdd.n117 203.719
R1371 Vdd.n92 Vdd.n88 203.719
R1372 Vdd.n106 Vdd.n102 203.719
R1373 Vdd.n21 Vdd.n11 200.689
R1374 Vdd.n675 Vdd.n667 192.754
R1375 Vdd.n681 Vdd.n675 192.754
R1376 Vdd.n688 Vdd.n669 192.754
R1377 Vdd.n683 Vdd.n669 192.754
R1378 Vdd.n599 Vdd.n591 192.754
R1379 Vdd.n605 Vdd.n599 192.754
R1380 Vdd.n612 Vdd.n593 192.754
R1381 Vdd.n607 Vdd.n593 192.754
R1382 Vdd.n523 Vdd.n515 192.754
R1383 Vdd.n529 Vdd.n523 192.754
R1384 Vdd.n536 Vdd.n517 192.754
R1385 Vdd.n531 Vdd.n517 192.754
R1386 Vdd.n448 Vdd.n440 192.754
R1387 Vdd.n454 Vdd.n448 192.754
R1388 Vdd.n461 Vdd.n442 192.754
R1389 Vdd.n456 Vdd.n442 192.754
R1390 Vdd.n740 Vdd.n729 188.988
R1391 Vdd.n752 Vdd.n741 188.988
R1392 Vdd.n747 Vdd.n722 188.988
R1393 Vdd.n735 Vdd.n721 188.988
R1394 Vdd.n665 Vdd.n646 188.988
R1395 Vdd.n660 Vdd.n646 188.988
R1396 Vdd.n658 Vdd.n652 188.988
R1397 Vdd.n652 Vdd.n645 188.988
R1398 Vdd.n699 Vdd.n691 188.988
R1399 Vdd.n705 Vdd.n699 188.988
R1400 Vdd.n712 Vdd.n693 188.988
R1401 Vdd.n707 Vdd.n693 188.988
R1402 Vdd.n623 Vdd.n615 188.988
R1403 Vdd.n629 Vdd.n623 188.988
R1404 Vdd.n636 Vdd.n617 188.988
R1405 Vdd.n631 Vdd.n617 188.988
R1406 Vdd.n589 Vdd.n570 188.988
R1407 Vdd.n584 Vdd.n570 188.988
R1408 Vdd.n582 Vdd.n576 188.988
R1409 Vdd.n576 Vdd.n569 188.988
R1410 Vdd.n513 Vdd.n494 188.988
R1411 Vdd.n508 Vdd.n494 188.988
R1412 Vdd.n506 Vdd.n500 188.988
R1413 Vdd.n500 Vdd.n493 188.988
R1414 Vdd.n547 Vdd.n539 188.988
R1415 Vdd.n553 Vdd.n547 188.988
R1416 Vdd.n560 Vdd.n541 188.988
R1417 Vdd.n555 Vdd.n541 188.988
R1418 Vdd.n438 Vdd.n419 188.988
R1419 Vdd.n433 Vdd.n419 188.988
R1420 Vdd.n431 Vdd.n425 188.988
R1421 Vdd.n425 Vdd.n418 188.988
R1422 Vdd.n472 Vdd.n464 188.988
R1423 Vdd.n478 Vdd.n472 188.988
R1424 Vdd.n485 Vdd.n466 188.988
R1425 Vdd.n480 Vdd.n466 188.988
R1426 Vdd.n140 Vdd.n139 188.643
R1427 Vdd.n154 Vdd.n153 188.643
R1428 Vdd.n180 Vdd.n179 188.643
R1429 Vdd.n192 Vdd.n191 188.643
R1430 Vdd.n167 Vdd.n166 188.643
R1431 Vdd.n127 Vdd.n126 188.643
R1432 Vdd.n98 Vdd.n97 188.643
R1433 Vdd.n112 Vdd.n111 188.643
R1434 Vdd.n47 Vdd.n35 185.225
R1435 Vdd.n78 Vdd.n35 185.225
R1436 Vdd.n78 Vdd.n77 185.225
R1437 Vdd.n70 Vdd.n69 185.225
R1438 Vdd.n69 Vdd.n49 185.225
R1439 Vdd.n65 Vdd.n49 185.225
R1440 Vdd.n58 Vdd.n57 185.225
R1441 Vdd.n57 Vdd.n52 185.225
R1442 Vdd.n255 Vdd.n254 185.19
R1443 Vdd.n65 Vdd.n64 178.825
R1444 Vdd.n26 Vdd.n25 177.984
R1445 Vdd.n77 Vdd.n36 175.812
R1446 Vdd.n82 Vdd.n81 168.564
R1447 Vdd.n81 Vdd.n32 168.564
R1448 Vdd.n73 Vdd.n32 168.564
R1449 Vdd.n73 Vdd.n41 168.564
R1450 Vdd.n61 Vdd.n41 168.564
R1451 Vdd.n61 Vdd.n54 168.564
R1452 Vdd.n242 Vdd.n205 163.766
R1453 Vdd.n384 Vdd.n348 150.213
R1454 Vdd.n378 Vdd.n377 150.213
R1455 Vdd.n334 Vdd.n333 150.213
R1456 Vdd.n340 Vdd.n304 150.213
R1457 Vdd.n243 Vdd.n201 150.213
R1458 Vdd.n203 Vdd.n201 150.213
R1459 Vdd.n288 Vdd.n287 150.213
R1460 Vdd.n294 Vdd.n258 150.213
R1461 Vdd.n272 Vdd.n271 150.213
R1462 Vdd.n271 Vdd.n259 150.213
R1463 Vdd.n278 Vdd.n259 150.213
R1464 Vdd.n318 Vdd.n317 150.213
R1465 Vdd.n317 Vdd.n305 150.213
R1466 Vdd.n324 Vdd.n305 150.213
R1467 Vdd.n362 Vdd.n361 150.213
R1468 Vdd.n361 Vdd.n349 150.213
R1469 Vdd.n368 Vdd.n349 150.213
R1470 Vdd.n227 Vdd.n226 148.24
R1471 Vdd.n278 Vdd.n169 147.953
R1472 Vdd.n324 Vdd.n143 147.953
R1473 Vdd.n368 Vdd.n116 147.953
R1474 Vdd.n9 Vdd.n1 147.577
R1475 Vdd.n4 Vdd.n1 147.577
R1476 Vdd.n4 Vdd.n0 147.577
R1477 Vdd.n36 Vdd.n27 137.322
R1478 Vdd.n64 Vdd.n63 134.698
R1479 Vdd.n51 Vdd.n39 133.239
R1480 Vdd.n47 Vdd.n46 132.142
R1481 Vdd.n79 Vdd.n26 132.142
R1482 Vdd.n79 Vdd.n78 132.142
R1483 Vdd.n78 Vdd.n34 132.142
R1484 Vdd.n49 Vdd.n34 132.142
R1485 Vdd.n71 Vdd.n47 132.142
R1486 Vdd.n71 Vdd.n70 132.142
R1487 Vdd.n70 Vdd.n48 132.142
R1488 Vdd.n56 Vdd.n49 132.142
R1489 Vdd.n57 Vdd.n56 132.142
R1490 Vdd.n216 Vdd.n215 125.311
R1491 Vdd.n39 Vdd.n38 124.326
R1492 Vdd.n364 Vdd.n100 115.291
R1493 Vdd.n320 Vdd.n129 115.291
R1494 Vdd.n274 Vdd.n156 115.291
R1495 Vdd.n753 Vdd.n740 114.072
R1496 Vdd.n753 Vdd.n752 114.072
R1497 Vdd.n746 Vdd.n745 114.072
R1498 Vdd.n734 Vdd.n733 114.072
R1499 Vdd.n659 Vdd.n658 114.072
R1500 Vdd.n660 Vdd.n659 114.072
R1501 Vdd.n666 Vdd.n645 114.072
R1502 Vdd.n666 Vdd.n665 114.072
R1503 Vdd.n682 Vdd.n681 114.072
R1504 Vdd.n683 Vdd.n682 114.072
R1505 Vdd.n706 Vdd.n705 114.072
R1506 Vdd.n707 Vdd.n706 114.072
R1507 Vdd.n630 Vdd.n629 114.072
R1508 Vdd.n631 Vdd.n630 114.072
R1509 Vdd.n583 Vdd.n582 114.072
R1510 Vdd.n584 Vdd.n583 114.072
R1511 Vdd.n590 Vdd.n569 114.072
R1512 Vdd.n590 Vdd.n589 114.072
R1513 Vdd.n606 Vdd.n605 114.072
R1514 Vdd.n607 Vdd.n606 114.072
R1515 Vdd.n507 Vdd.n506 114.072
R1516 Vdd.n508 Vdd.n507 114.072
R1517 Vdd.n514 Vdd.n493 114.072
R1518 Vdd.n514 Vdd.n513 114.072
R1519 Vdd.n530 Vdd.n529 114.072
R1520 Vdd.n531 Vdd.n530 114.072
R1521 Vdd.n554 Vdd.n553 114.072
R1522 Vdd.n555 Vdd.n554 114.072
R1523 Vdd.n432 Vdd.n431 114.072
R1524 Vdd.n433 Vdd.n432 114.072
R1525 Vdd.n439 Vdd.n418 114.072
R1526 Vdd.n439 Vdd.n438 114.072
R1527 Vdd.n455 Vdd.n454 114.072
R1528 Vdd.n456 Vdd.n455 114.072
R1529 Vdd.n479 Vdd.n478 114.072
R1530 Vdd.n480 Vdd.n479 114.072
R1531 Vdd.n745 Vdd.n723 113.081
R1532 Vdd.n85 Vdd.n84 112.942
R1533 Vdd.n713 Vdd.n712 112.709
R1534 Vdd.n637 Vdd.n636 112.709
R1535 Vdd.n561 Vdd.n560 112.709
R1536 Vdd.n486 Vdd.n485 112.709
R1537 Vdd.n733 Vdd.n720 112.665
R1538 Vdd.n689 Vdd.n688 112.275
R1539 Vdd.n613 Vdd.n612 112.275
R1540 Vdd.n537 Vdd.n536 112.275
R1541 Vdd.n462 Vdd.n461 112.275
R1542 Vdd.n714 Vdd.n691 111.812
R1543 Vdd.n638 Vdd.n615 111.812
R1544 Vdd.n562 Vdd.n539 111.812
R1545 Vdd.n487 Vdd.n464 111.812
R1546 Vdd.n759 Vdd.n722 111.224
R1547 Vdd.n760 Vdd.n721 109.799
R1548 Vdd.n690 Vdd.n667 109.502
R1549 Vdd.n614 Vdd.n591 109.502
R1550 Vdd.n538 Vdd.n515 109.502
R1551 Vdd.n463 Vdd.n440 109.502
R1552 Vdd.n216 Vdd.n206 108.371
R1553 Vdd.n10 Vdd.n9 97.0582
R1554 Vdd.n295 Vdd.n257 93.8044
R1555 Vdd.n341 Vdd.n303 93.8044
R1556 Vdd.n385 Vdd.n347 93.8044
R1557 Vdd.n244 Vdd.n243 87.3417
R1558 Vdd.n243 Vdd.n195 87.3417
R1559 Vdd.n204 Vdd.n203 87.3417
R1560 Vdd.n203 Vdd.n196 87.3417
R1561 Vdd.n272 Vdd.n265 87.3417
R1562 Vdd.n273 Vdd.n272 87.3417
R1563 Vdd.n294 Vdd.n293 87.3417
R1564 Vdd.n293 Vdd.n259 87.3417
R1565 Vdd.n289 Vdd.n259 87.3417
R1566 Vdd.n289 Vdd.n288 87.3417
R1567 Vdd.n318 Vdd.n311 87.3417
R1568 Vdd.n319 Vdd.n318 87.3417
R1569 Vdd.n340 Vdd.n339 87.3417
R1570 Vdd.n339 Vdd.n305 87.3417
R1571 Vdd.n335 Vdd.n305 87.3417
R1572 Vdd.n335 Vdd.n334 87.3417
R1573 Vdd.n362 Vdd.n355 87.3417
R1574 Vdd.n363 Vdd.n362 87.3417
R1575 Vdd.n384 Vdd.n383 87.3417
R1576 Vdd.n383 Vdd.n349 87.3417
R1577 Vdd.n379 Vdd.n349 87.3417
R1578 Vdd.n379 Vdd.n378 87.3417
R1579 Vdd.n372 Vdd.n116 86.2687
R1580 Vdd.n367 Vdd.n116 86.2687
R1581 Vdd.n323 Vdd.n143 86.2687
R1582 Vdd.n328 Vdd.n143 86.2687
R1583 Vdd.n277 Vdd.n169 86.2687
R1584 Vdd.n282 Vdd.n169 86.2687
R1585 Vdd.n227 Vdd.n217 84.7602
R1586 Vdd.n689 Vdd.n668 78.6829
R1587 Vdd.n682 Vdd.n668 78.6829
R1588 Vdd.n613 Vdd.n592 78.6829
R1589 Vdd.n606 Vdd.n592 78.6829
R1590 Vdd.n537 Vdd.n516 78.6829
R1591 Vdd.n530 Vdd.n516 78.6829
R1592 Vdd.n462 Vdd.n441 78.6829
R1593 Vdd.n455 Vdd.n441 78.6829
R1594 Vdd.n734 Vdd.n729 74.9181
R1595 Vdd.n746 Vdd.n741 74.9181
R1596 Vdd.n747 Vdd.n746 74.9181
R1597 Vdd.n735 Vdd.n734 74.9181
R1598 Vdd.n759 Vdd.n758 74.9181
R1599 Vdd.n754 Vdd.n723 74.9181
R1600 Vdd.n754 Vdd.n753 74.9181
R1601 Vdd.n666 Vdd.n644 74.9181
R1602 Vdd.n659 Vdd.n644 74.9181
R1603 Vdd.n713 Vdd.n692 74.9181
R1604 Vdd.n706 Vdd.n692 74.9181
R1605 Vdd.n637 Vdd.n616 74.9181
R1606 Vdd.n630 Vdd.n616 74.9181
R1607 Vdd.n590 Vdd.n568 74.9181
R1608 Vdd.n583 Vdd.n568 74.9181
R1609 Vdd.n514 Vdd.n492 74.9181
R1610 Vdd.n507 Vdd.n492 74.9181
R1611 Vdd.n561 Vdd.n540 74.9181
R1612 Vdd.n554 Vdd.n540 74.9181
R1613 Vdd.n439 Vdd.n417 74.9181
R1614 Vdd.n432 Vdd.n417 74.9181
R1615 Vdd.n486 Vdd.n465 74.9181
R1616 Vdd.n479 Vdd.n465 74.9181
R1617 Vdd.n244 Vdd.n242 73.7887
R1618 Vdd.n758 Vdd.n723 73.4123
R1619 Vdd.n85 Vdd.n26 68.5181
R1620 Vdd.n135 Vdd.n134 61.6672
R1621 Vdd.n139 Vdd.n138 61.6672
R1622 Vdd.n149 Vdd.n148 61.6672
R1623 Vdd.n153 Vdd.n152 61.6672
R1624 Vdd.n175 Vdd.n174 61.6672
R1625 Vdd.n179 Vdd.n178 61.6672
R1626 Vdd.n187 Vdd.n186 61.6672
R1627 Vdd.n191 Vdd.n190 61.6672
R1628 Vdd.n162 Vdd.n161 61.6672
R1629 Vdd.n166 Vdd.n165 61.6672
R1630 Vdd.n122 Vdd.n121 61.6672
R1631 Vdd.n126 Vdd.n125 61.6672
R1632 Vdd.n93 Vdd.n92 61.6672
R1633 Vdd.n97 Vdd.n96 61.6672
R1634 Vdd.n107 Vdd.n106 61.6672
R1635 Vdd.n111 Vdd.n110 61.6672
R1636 Vdd.n2 Vdd.n1 61.6672
R1637 Vdd.n3 Vdd.n0 61.6672
R1638 Vdd.n21 Vdd.n20 61.3942
R1639 Vdd.n295 Vdd.n294 52.0162
R1640 Vdd.n341 Vdd.n340 52.0162
R1641 Vdd.n385 Vdd.n384 52.0162
R1642 Vdd.n255 Vdd.n195 49.2839
R1643 Vdd.n10 Vdd.n0 47.3641
R1644 Vdd.n738 Vdd.n729 46.2505
R1645 Vdd.n738 Vdd.n737 46.2505
R1646 Vdd.n748 Vdd.n747 46.2505
R1647 Vdd.n749 Vdd.n748 46.2505
R1648 Vdd.n750 Vdd.n741 46.2505
R1649 Vdd.n750 Vdd.n749 46.2505
R1650 Vdd.n736 Vdd.n735 46.2505
R1651 Vdd.n737 Vdd.n736 46.2505
R1652 Vdd.n758 Vdd.n757 46.2505
R1653 Vdd.n757 Vdd.n756 46.2505
R1654 Vdd.n755 Vdd.n754 46.2505
R1655 Vdd.n756 Vdd.n755 46.2505
R1656 Vdd.n650 Vdd.n644 46.2505
R1657 Vdd.n650 Vdd.n649 46.2505
R1658 Vdd.n648 Vdd.n646 46.2505
R1659 Vdd.n653 Vdd.n652 46.2505
R1660 Vdd.n676 Vdd.n675 46.2505
R1661 Vdd.n671 Vdd.n669 46.2505
R1662 Vdd.n673 Vdd.n668 46.2505
R1663 Vdd.n673 Vdd.n672 46.2505
R1664 Vdd.n700 Vdd.n699 46.2505
R1665 Vdd.n695 Vdd.n693 46.2505
R1666 Vdd.n697 Vdd.n692 46.2505
R1667 Vdd.n697 Vdd.n696 46.2505
R1668 Vdd.n624 Vdd.n623 46.2505
R1669 Vdd.n619 Vdd.n617 46.2505
R1670 Vdd.n621 Vdd.n616 46.2505
R1671 Vdd.n621 Vdd.n620 46.2505
R1672 Vdd.n574 Vdd.n568 46.2505
R1673 Vdd.n574 Vdd.n573 46.2505
R1674 Vdd.n572 Vdd.n570 46.2505
R1675 Vdd.n577 Vdd.n576 46.2505
R1676 Vdd.n600 Vdd.n599 46.2505
R1677 Vdd.n595 Vdd.n593 46.2505
R1678 Vdd.n597 Vdd.n592 46.2505
R1679 Vdd.n597 Vdd.n596 46.2505
R1680 Vdd.n498 Vdd.n492 46.2505
R1681 Vdd.n498 Vdd.n497 46.2505
R1682 Vdd.n496 Vdd.n494 46.2505
R1683 Vdd.n501 Vdd.n500 46.2505
R1684 Vdd.n524 Vdd.n523 46.2505
R1685 Vdd.n519 Vdd.n517 46.2505
R1686 Vdd.n521 Vdd.n516 46.2505
R1687 Vdd.n521 Vdd.n520 46.2505
R1688 Vdd.n548 Vdd.n547 46.2505
R1689 Vdd.n543 Vdd.n541 46.2505
R1690 Vdd.n545 Vdd.n540 46.2505
R1691 Vdd.n545 Vdd.n544 46.2505
R1692 Vdd.n423 Vdd.n417 46.2505
R1693 Vdd.n423 Vdd.n422 46.2505
R1694 Vdd.n421 Vdd.n419 46.2505
R1695 Vdd.n426 Vdd.n425 46.2505
R1696 Vdd.n449 Vdd.n448 46.2505
R1697 Vdd.n444 Vdd.n442 46.2505
R1698 Vdd.n446 Vdd.n441 46.2505
R1699 Vdd.n446 Vdd.n445 46.2505
R1700 Vdd.n473 Vdd.n472 46.2505
R1701 Vdd.n468 Vdd.n466 46.2505
R1702 Vdd.n470 Vdd.n465 46.2505
R1703 Vdd.n470 Vdd.n469 46.2505
R1704 Vdd.n9 Vdd.n8 46.2505
R1705 Vdd.n5 Vdd.n4 46.2505
R1706 Vdd.n414 Vdd.n413 40.8314
R1707 Vdd.n375 Vdd.n367 37.0005
R1708 Vdd.n375 Vdd.n374 37.0005
R1709 Vdd.n373 Vdd.n372 37.0005
R1710 Vdd.n374 Vdd.n373 37.0005
R1711 Vdd.n331 Vdd.n323 37.0005
R1712 Vdd.n331 Vdd.n330 37.0005
R1713 Vdd.n329 Vdd.n328 37.0005
R1714 Vdd.n330 Vdd.n329 37.0005
R1715 Vdd.n219 Vdd.n217 37.0005
R1716 Vdd.n220 Vdd.n218 37.0005
R1717 Vdd.n208 Vdd.n206 37.0005
R1718 Vdd.n209 Vdd.n207 37.0005
R1719 Vdd.n245 Vdd.n244 37.0005
R1720 Vdd.n197 Vdd.n195 37.0005
R1721 Vdd.n198 Vdd.n197 37.0005
R1722 Vdd.n251 Vdd.n196 37.0005
R1723 Vdd.n204 Vdd.n199 37.0005
R1724 Vdd.n247 Vdd.n199 37.0005
R1725 Vdd.n238 Vdd.n237 37.0005
R1726 Vdd.n234 Vdd.n233 37.0005
R1727 Vdd.n285 Vdd.n277 37.0005
R1728 Vdd.n285 Vdd.n284 37.0005
R1729 Vdd.n283 Vdd.n282 37.0005
R1730 Vdd.n284 Vdd.n283 37.0005
R1731 Vdd.n268 Vdd.n265 37.0005
R1732 Vdd.n268 Vdd.n267 37.0005
R1733 Vdd.n273 Vdd.n264 37.0005
R1734 Vdd.n267 Vdd.n264 37.0005
R1735 Vdd.n293 Vdd.n292 37.0005
R1736 Vdd.n292 Vdd.n291 37.0005
R1737 Vdd.n290 Vdd.n289 37.0005
R1738 Vdd.n291 Vdd.n290 37.0005
R1739 Vdd.n314 Vdd.n311 37.0005
R1740 Vdd.n314 Vdd.n313 37.0005
R1741 Vdd.n319 Vdd.n310 37.0005
R1742 Vdd.n313 Vdd.n310 37.0005
R1743 Vdd.n339 Vdd.n338 37.0005
R1744 Vdd.n338 Vdd.n337 37.0005
R1745 Vdd.n336 Vdd.n335 37.0005
R1746 Vdd.n337 Vdd.n336 37.0005
R1747 Vdd.n358 Vdd.n355 37.0005
R1748 Vdd.n358 Vdd.n357 37.0005
R1749 Vdd.n363 Vdd.n354 37.0005
R1750 Vdd.n357 Vdd.n354 37.0005
R1751 Vdd.n383 Vdd.n382 37.0005
R1752 Vdd.n382 Vdd.n381 37.0005
R1753 Vdd.n380 Vdd.n379 37.0005
R1754 Vdd.n381 Vdd.n380 37.0005
R1755 Vdd.n20 Vdd.n19 37.0005
R1756 Vdd.n16 Vdd.n15 37.0005
R1757 Vdd.n6 Vdd.n5 33.5287
R1758 Vdd.n8 Vdd.n7 33.5287
R1759 Vdd.n252 Vdd.n251 32.732
R1760 Vdd.n246 Vdd.n245 32.732
R1761 Vdd.n407 Vdd.n405 30.8338
R1762 Vdd.n406 Vdd.n404 30.8338
R1763 Vdd.n403 Vdd.n402 28.5005
R1764 Vdd.n288 Vdd.n156 26.8208
R1765 Vdd.n334 Vdd.n129 26.8208
R1766 Vdd.n378 Vdd.n100 26.8208
R1767 Vdd.n752 Vdd.n751 26.4291
R1768 Vdd.n751 Vdd.n727 26.4291
R1769 Vdd.n740 Vdd.n739 26.4291
R1770 Vdd.n739 Vdd.n726 26.4291
R1771 Vdd.n743 Vdd.n722 26.4291
R1772 Vdd.n743 Vdd.n727 26.4291
R1773 Vdd.n745 Vdd.n744 26.4291
R1774 Vdd.n744 Vdd.n727 26.4291
R1775 Vdd.n733 Vdd.n732 26.4291
R1776 Vdd.n732 Vdd.n726 26.4291
R1777 Vdd.n731 Vdd.n721 26.4291
R1778 Vdd.n731 Vdd.n726 26.4291
R1779 Vdd.n661 Vdd.n660 26.4291
R1780 Vdd.n658 Vdd.n657 26.4291
R1781 Vdd.n657 Vdd.n656 26.4291
R1782 Vdd.n654 Vdd.n645 26.4291
R1783 Vdd.n665 Vdd.n664 26.4291
R1784 Vdd.n664 Vdd.n663 26.4291
R1785 Vdd.n677 Vdd.n667 26.4291
R1786 Vdd.n688 Vdd.n687 26.4291
R1787 Vdd.n687 Vdd.n686 26.4291
R1788 Vdd.n684 Vdd.n683 26.4291
R1789 Vdd.n681 Vdd.n680 26.4291
R1790 Vdd.n680 Vdd.n679 26.4291
R1791 Vdd.n701 Vdd.n691 26.4291
R1792 Vdd.n712 Vdd.n711 26.4291
R1793 Vdd.n711 Vdd.n710 26.4291
R1794 Vdd.n708 Vdd.n707 26.4291
R1795 Vdd.n705 Vdd.n704 26.4291
R1796 Vdd.n704 Vdd.n703 26.4291
R1797 Vdd.n625 Vdd.n615 26.4291
R1798 Vdd.n636 Vdd.n635 26.4291
R1799 Vdd.n635 Vdd.n634 26.4291
R1800 Vdd.n632 Vdd.n631 26.4291
R1801 Vdd.n629 Vdd.n628 26.4291
R1802 Vdd.n628 Vdd.n627 26.4291
R1803 Vdd.n585 Vdd.n584 26.4291
R1804 Vdd.n582 Vdd.n581 26.4291
R1805 Vdd.n581 Vdd.n580 26.4291
R1806 Vdd.n578 Vdd.n569 26.4291
R1807 Vdd.n589 Vdd.n588 26.4291
R1808 Vdd.n588 Vdd.n587 26.4291
R1809 Vdd.n601 Vdd.n591 26.4291
R1810 Vdd.n612 Vdd.n611 26.4291
R1811 Vdd.n611 Vdd.n610 26.4291
R1812 Vdd.n608 Vdd.n607 26.4291
R1813 Vdd.n605 Vdd.n604 26.4291
R1814 Vdd.n604 Vdd.n603 26.4291
R1815 Vdd.n509 Vdd.n508 26.4291
R1816 Vdd.n506 Vdd.n505 26.4291
R1817 Vdd.n505 Vdd.n504 26.4291
R1818 Vdd.n502 Vdd.n493 26.4291
R1819 Vdd.n513 Vdd.n512 26.4291
R1820 Vdd.n512 Vdd.n511 26.4291
R1821 Vdd.n525 Vdd.n515 26.4291
R1822 Vdd.n536 Vdd.n535 26.4291
R1823 Vdd.n535 Vdd.n534 26.4291
R1824 Vdd.n532 Vdd.n531 26.4291
R1825 Vdd.n529 Vdd.n528 26.4291
R1826 Vdd.n528 Vdd.n527 26.4291
R1827 Vdd.n549 Vdd.n539 26.4291
R1828 Vdd.n560 Vdd.n559 26.4291
R1829 Vdd.n559 Vdd.n558 26.4291
R1830 Vdd.n556 Vdd.n555 26.4291
R1831 Vdd.n553 Vdd.n552 26.4291
R1832 Vdd.n552 Vdd.n551 26.4291
R1833 Vdd.n434 Vdd.n433 26.4291
R1834 Vdd.n431 Vdd.n430 26.4291
R1835 Vdd.n430 Vdd.n429 26.4291
R1836 Vdd.n427 Vdd.n418 26.4291
R1837 Vdd.n438 Vdd.n437 26.4291
R1838 Vdd.n437 Vdd.n436 26.4291
R1839 Vdd.n450 Vdd.n440 26.4291
R1840 Vdd.n461 Vdd.n460 26.4291
R1841 Vdd.n460 Vdd.n459 26.4291
R1842 Vdd.n457 Vdd.n456 26.4291
R1843 Vdd.n454 Vdd.n453 26.4291
R1844 Vdd.n453 Vdd.n452 26.4291
R1845 Vdd.n474 Vdd.n464 26.4291
R1846 Vdd.n485 Vdd.n484 26.4291
R1847 Vdd.n484 Vdd.n483 26.4291
R1848 Vdd.n481 Vdd.n480 26.4291
R1849 Vdd.n478 Vdd.n477 26.4291
R1850 Vdd.n477 Vdd.n476 26.4291
R1851 Vdd.n7 Vdd.n6 23.2045
R1852 Vdd.n132 Vdd.n131 23.1255
R1853 Vdd.n136 Vdd.n130 23.1255
R1854 Vdd.n146 Vdd.n145 23.1255
R1855 Vdd.n150 Vdd.n144 23.1255
R1856 Vdd.n172 Vdd.n171 23.1255
R1857 Vdd.n176 Vdd.n170 23.1255
R1858 Vdd.n184 Vdd.n183 23.1255
R1859 Vdd.n188 Vdd.n182 23.1255
R1860 Vdd.n159 Vdd.n158 23.1255
R1861 Vdd.n163 Vdd.n157 23.1255
R1862 Vdd.n119 Vdd.n118 23.1255
R1863 Vdd.n123 Vdd.n117 23.1255
R1864 Vdd.n90 Vdd.n89 23.1255
R1865 Vdd.n94 Vdd.n88 23.1255
R1866 Vdd.n104 Vdd.n103 23.1255
R1867 Vdd.n108 Vdd.n102 23.1255
R1868 Vdd.n29 Vdd.n27 20.5561
R1869 Vdd.n81 Vdd.n29 20.5561
R1870 Vdd.n74 Vdd.n39 20.5561
R1871 Vdd.n74 Vdd.n73 20.5561
R1872 Vdd.n46 Vdd.n31 20.5561
R1873 Vdd.n81 Vdd.n31 20.5561
R1874 Vdd.n80 Vdd.n79 20.5561
R1875 Vdd.n81 Vdd.n80 20.5561
R1876 Vdd.n40 Vdd.n34 20.5561
R1877 Vdd.n73 Vdd.n40 20.5561
R1878 Vdd.n72 Vdd.n71 20.5561
R1879 Vdd.n73 Vdd.n72 20.5561